MOL
     RDKit          3D

 12 12  0  0  0  0  0  0  0  0999 V2000
   61.8600   37.5100   28.9300 C   0  0  0  0  0  0  0  0  0  0  0  0
   62.4400   38.1400   27.8300 C   0  0  0  0  0  0  0  0  0  0  0  0
   63.1000   39.3900   28.0200 C   0  0  0  0  0  0  0  0  0  0  0  0
   63.1500   39.9600   29.2800 C   0  0  0  0  0  0  0  0  0  0  0  0
   62.4200   39.4500   30.3300 C   0  0  0  0  0  0  0  0  0  0  0  0
   61.7600   38.2600   30.1300 C   0  0  0  0  0  0  0  0  0  0  0  0
   61.4000   36.5300   28.8500 H   0  0  0  0  0  0  0  0  0  0  0  0
   62.4200   37.7200   26.8300 H   0  0  0  0  0  0  0  0  0  0  0  0
   63.5800   39.9300   27.2100 H   0  0  0  0  0  0  0  0  0  0  0  0
   63.6200   40.9400   29.2100 H   0  0  0  0  0  0  0  0  0  0  0  0
   62.4200   39.9500   31.2900 H   0  0  0  0  0  0  0  0  0  0  0  0
   61.2000   37.8700   30.9700 H   0  0  0  0  0  0  0  0  0  0  0  0
  1  2  2  0
  1  6  1  0
  1  7  1  0
  2  3  1  0
  2  8  1  0
  3  4  2  0
  3  9  1  0
  4  5  1  0
  4 10  1  0
  5  6  2  0
  5 11  1  0
  6 12  1  0
A    1
C
A    2
C
A    3
C
A    4
C
A    5
C
A    6
C
A    7
H
A    8
H
A    9
H
A   10
H
A   11
H
A   12
H
M  END
$$$$
